 1000.00     300.00      0.00
   25.00     300.00      0.00      0.00       0.00
   75.00     300.00      0.00      0.00       0.00
  125.00     300.00      0.00      0.00       0.00
  175.00     300.00      0.00      0.00       0.00
  225.00     300.00      0.00      0.00       0.00
  275.00     300.00      0.00      0.00       0.00
  325.00     300.00      0.00      0.00       0.00
  375.00     300.00      0.00      0.00       0.00
  425.00     300.00      0.00      0.00       0.00
  475.00     300.00      0.00      0.00       0.00
  525.00     300.00      0.00      0.00       0.00
  575.00     300.00      0.00      0.00       0.00
  625.00     300.00      0.00      0.00       0.00
  675.00     300.00      0.00      0.00       0.00
  725.00     300.00      0.00      0.00       0.00
  775.00     300.00      0.00      0.00       0.00
  825.00     300.00      0.00      0.00       0.00
  875.00     300.00      0.00      0.00       0.00
  925.00     300.00      0.00      0.00       0.00
  975.00     302.43      0.00      0.00       0.00
 1025.00     305.63      0.00      0.00       0.00
 1075.00     308.05      0.00      0.00       0.00
 1125.00     308.20      0.00      0.00       0.00
 1175.00     308.35      0.00      0.00       0.00
 1225.00     308.50      0.00      0.00       0.00
 1275.00     308.65      0.00      0.00       0.00
 1325.00     308.80      0.00      0.00       0.00
 1375.00     308.95      0.00      0.00       0.00
 1425.00     309.10      0.00      0.00       0.00
 1475.00     309.25      0.00      0.00       0.00
 1525.00     309.40      0.00      0.00       0.00
 1575.00     309.55      0.00      0.00       0.00
 1625.00     309.70      0.00      0.00       0.00
 1675.00     309.85      0.00      0.00       0.00
 1725.00     310.00      0.00      0.00       0.00
 1775.00     310.15      0.00      0.00       0.00
 1825.00     310.30      0.00      0.00       0.00
 1875.00     310.45      0.00      0.00       0.00
 1925.00     310.60      0.00      0.00       0.00
 1975.00     310.75      0.00      0.00       0.00
 2025.00     310.90      0.00      0.00       0.00
 3200.00     314.43      0.00      0.00       0.00
